  16
  -17.931438900000000       0.49954595610131880      !mtd2
 C          0.6847878834       -1.1982915336        0.3354859148
 C         -0.6843449901       -1.1985001561       -0.3355147115
 H          0.5523778262       -1.1595413965        1.4189164779
 H          1.2282425992       -2.1141858317        0.0944476046
 H         -1.2275145239       -2.1145751466       -0.0945513758
 H         -0.5518887991       -1.1596034400       -1.4189258232
 C         -1.4835986349        0.0190187060        0.1214467720
 C         -0.6590839308        1.2679596961        0.0549003456
 C          0.6586097448        1.2681960262       -0.0548402063
 C          1.4835939125        0.0195545145       -0.1214344617
 H         -1.8236587768       -0.1252074775        1.1530299168
 H         -2.3780445918        0.1377877709       -0.4959062643
 H         -1.2050189368        2.2000954701        0.1118983556
 H          1.2041326887        2.2005861181       -0.1124654627
 H          1.8239071715       -0.1245501742       -1.1529675835
 H          2.3778945288        0.1387413364        0.4960039499
  16
  -17.931438870000001       0.49953009784498792      !mtd3
 C          0.6877838078       -1.1982634343       -0.3293473277
 C         -0.6873572073       -1.1985627541        0.3292436031
 H          1.2290455939       -2.1141367415       -0.0833907082
 H          0.5651569177       -1.1595012025       -1.4139220800
 H         -0.5647465053       -1.1598108391        1.4137840708
 H         -1.2282880851       -2.1146114941        0.0832951682
 C         -1.4824544289        0.0190417800       -0.1346427114
 C         -0.6585271477        1.2679472973       -0.0609472858
 C          0.6580850295        1.2681705914        0.0609373696
 C          1.4824543953        0.0195816729        0.1347047835
 H         -2.3819831012        0.1380135029        0.4752350321
 H         -1.8140745338       -0.1251340533       -1.1689139103
 H         -1.2038506600        2.2000738855       -0.1232967503
 H          1.2030371405        2.2005741319        0.1236202179
 H          2.3820897839        0.1388728147       -0.4749079081
 H          1.8137987725       -0.1245294129        1.1691114046
  16
  -17.924837239999999        4.6202191259352219E-004 !mtd11
 C          0.7657089225       -1.2252402328        0.2148467885
 C         -0.7728250143       -1.2245864817        0.1876279668
 H          1.1086780484       -1.3334812631        1.2452002794
 H          1.1552299778       -2.0746373816       -0.3487301245
 H         -1.1521430470       -1.3291125876        1.2056056633
 H         -1.1429244829       -2.0755506762       -0.3865089405
 C         -1.3554202777        0.0675679374       -0.4074054017
 C         -0.6658417141        1.2555795329        0.1835097752
 C          0.6576658287        1.2557214820        0.2090311616
 C          1.3699927807        0.0682424623       -0.3554130407
 H         -2.4310778045        0.1020256320       -0.2322721150
 H         -1.1915973359        0.0609332000       -1.4899735235
 H         -1.2582096719        2.0662517885        0.5786511950
 H          1.2341073214        2.0666464393        0.6266376381
 H          1.2484116533        0.0628787428       -1.4435836481
 H          2.4380992123        0.1030325798       -0.1387164389
  16
  -17.924837040000000        4.6192414109969877E-004 !mtd8
 C          0.7729386782       -1.2265168586       -0.1821774849
 C         -0.7653729061       -1.2233806823       -0.2196516917
 H          1.1368001108       -2.0731446971        0.4023074278
 H          1.1583988472       -1.3419689258       -1.1965405035
 H         -1.1606555456       -2.0767072179        0.3338431683
 H         -1.1019525708       -1.3215331435       -1.2531232974
 C         -1.3694841385        0.0671083459        0.3569356069
 C         -0.6588313198        1.2556500135       -0.2075385858
 C          0.6647305975        1.2555667529       -0.1854811420
 C          1.3562972714        0.0688185899        0.4056489636
 H         -1.2451237899        0.0583913961        1.4446775472
 H         -2.4380034585        0.1018929382        0.1425895081
 H         -1.2363864392        2.0665877217       -0.6235859776
 H          1.2558844456        2.0666795196       -0.5815997619
 H          2.4314588375        0.1034020059        0.2270940289
 H          1.1962644996        0.0658461365        1.4888273076
