  16
        -18.07236442
 C          0.6914931614       -1.2055739989       -0.3276363710
 C         -0.6914398183       -1.2056607032        0.3274624426
 H          1.2328092368       -2.1170825894       -0.0577265808
 H          0.5777338469       -1.1920543870       -1.4168795990
 H         -0.5776818089       -1.1926755671        1.4167084760
 H         -1.2327633714       -2.1170454400        0.0571336948
 C         -1.4899856170        0.0217204809       -0.1197472223
 C         -0.6605580556        1.2747308726       -0.0539256001
 C          0.6605817494        1.2747281065        0.0538751734
 C          1.4899253571        0.0217036055        0.1200247652
 H         -2.3785037030        0.1372864893        0.5098863221
 H         -1.8430839431       -0.1188308216       -1.1491590614
 H         -1.2120574001        2.2086869600       -0.1071993517
 H          1.2120832812        2.2087400976        0.1062781227
 H          2.3787128877        0.1371979145       -0.5092340736
 H          1.8425510449       -0.1189001968        1.1495582207
  16
        -18.06730344
 C          0.7671576330       -1.2296731385       -0.2068650548
 C         -0.7738537219       -1.2314930285       -0.1777681711
 H          1.1511655055       -2.0751191427        0.3711207677
 H          1.1048637755       -1.3591292815       -1.2396081089
 H         -1.1341634950       -2.0743232826        0.4191181372
 H         -1.1500519411       -1.3675139416       -1.1963125000
 C         -1.3768474656        0.0673160523        0.3888027164
 C         -0.6660955037        1.2631188890       -0.1780407331
 C          0.6603660921        1.2633496250       -0.1992597574
 C          1.3889363441        0.0671236187        0.3434949631
 H         -1.2688107255        0.0632776258        1.4803345993
 H         -2.4454940584        0.1010611788        0.1620868230
 H         -1.2599527266        2.0845057578       -0.5622181890
 H          1.2414080966        2.0847654431       -0.6024569955
 H          2.4499424691        0.1012584372        0.0832124632
 H          1.3151045751        0.0609201740        1.4378914112
