  16
        -18.07236442
 C          0.6914931614       -1.2055739989       -0.3276363710
 C         -0.6914398183       -1.2056607032        0.3274624426
 H          1.2328092368       -2.1170825894       -0.0577265808
 H          0.5777338469       -1.1920543870       -1.4168795990
 H         -0.5776818089       -1.1926755671        1.4167084760
 H         -1.2327633714       -2.1170454400        0.0571336948
 C         -1.4899856170        0.0217204809       -0.1197472223
 C         -0.6605580556        1.2747308726       -0.0539256001
 C          0.6605817494        1.2747281065        0.0538751734
 C          1.4899253571        0.0217036055        0.1200247652
 H         -2.3785037030        0.1372864893        0.5098863221
 H         -1.8430839431       -0.1188308216       -1.1491590614
 H         -1.2120574001        2.2086869600       -0.1071993517
 H          1.2120832812        2.2087400976        0.1062781227
 H          2.3787128877        0.1371979145       -0.5092340736
 H          1.8425510449       -0.1189001968        1.1495582207
