16
        -17.82301231 , 
  C  0.65770239 -2.01132709 -0.60916328
  C -0.65555417 -1.95393688 -0.67921619
  H  1.16544209 -2.50719166  0.20202687
  H  1.28929782 -1.56420130 -1.35854927
  H -1.28745558 -2.39888976  0.07181037
  H -1.16263375 -1.45808281 -1.48994260
  C -1.49392541  0.90394532  0.78927402
  C -0.75071193  1.61328710 -0.05311337
  C  0.70139087  1.62718782 -0.11567253
  C  1.52697901  0.93257666  0.65959597
  H -1.06315640  0.25284566  1.52958639
  H -2.56920393  0.95088822  0.76683193
  H -1.24385509  2.25078488 -0.77677468
  H  1.11844303  2.27355053 -0.87823312
  H  2.59535100  0.99884753  0.54534030
  H  1.17193747  0.27476234  1.43335609