  61
        -95.05342159
 C         -3.0253897325        0.8030306411        0.0021276334
 C         -4.5935205990       -0.5765948497        1.2699002329
 C          1.8257883579       -2.2102514971       -1.9994577354
 C         -0.2603031275       -1.2309641139       -1.2559300269
 C         -3.6447929830       -1.5656614000        1.3356749528
 C         -0.9346916097       -2.2852152331       -1.8612034336
 C         -2.0714806661       -0.2804833825       -0.0096320887
 C          1.1302785145       -3.2557733140       -2.5840537435
 C         -2.7446129556        2.0311529621       -0.6123985577
 C         -4.2884568955        0.6392142614        0.6317547927
 C          1.1624939722       -1.2026321026       -1.3036658267
 C         -2.3871805490       -1.4342413551        0.7443763114
 C         -0.2488800864       -3.2994234489       -2.5070455518
 C         -3.6523481268        3.0584485906       -0.6290613824
 C         -5.2050032612        1.7114258430        0.6003428855
 C         -1.6864445924       -3.8273132393        0.8676376638
 C         -1.3828903661       -2.4749232257        1.0038861594
 C         -4.9006008095        2.8927132533       -0.0183911136
 C          2.9265465588       -0.0238199471       -0.0951330981
 C          3.7206783948       -1.1419243966        0.2517510999
 C          1.2027472320        4.1534248842        1.4064346633
 C          2.1830009236        3.1699585885        1.4372080303
 C          0.4582622385        4.3641477404        0.2600456249
 C          2.4675081142        2.3958420497        0.3216103235
 C          3.3659052343        1.2451836112        0.4104581772
 C         -0.7390036994       -4.7964769707        1.1381775787
 C          4.9071598248       -1.0105892728        0.9295554398
 C         -0.1069197979       -2.1248103775        1.4474987216
 C          0.7359068736        3.6334968793       -0.8873195036
 C          1.7429405473        2.6485735362       -0.8790071062
 C          4.5636346224        1.3409765873        1.1039760030
 C          5.3629896066        0.2383201523        1.3378559437
 C          0.5277936214       -4.4342729839        1.5615334608
 C          0.8368538488       -3.0930881530        1.7220369744
 Cu         0.3249014786        1.2652002888       -0.7280569776
 H         -1.7643048273        2.1524932905       -1.0719288295
 H         -5.5631872828       -0.7064300721        1.7318182953
 H          2.9000307683       -2.1576568349       -2.1128762838
 H         -2.0166056376       -2.2929612306       -1.8363082310
 H         -3.8540038494       -2.4704600173        1.8941288768
 H          1.6726027426       -4.0303588913       -3.1120833784
 H         -2.6688636228       -4.1180027753        0.5202579039
 H         -0.7973219230       -4.1109762651       -2.9677377328
 H         -3.4091209331        3.9966828556       -1.1094899799
 H          3.3645896085       -2.1263906657       -0.0120254128
 H         -6.1635440832        1.5811181563        1.0877508489
 H          1.0087336850        4.7432399661        2.2918957900
 H          2.7220230403        2.9845678653        2.3565346631
 H         -5.6172387525        3.7044905259       -0.0320288453
 H         -0.3270644477        5.1071215859        0.2507169879
 H         -0.9874179781       -5.8425060101        1.0101475758
 H          0.1415767855       -1.0801418144        1.5750227677
 H          5.4928843353       -1.8947073572        1.1538269334
 H          0.2415964736        3.8835375533       -1.8169760820
 H          2.1722178166        2.3162547304       -1.8215997219
 H          4.8826763380        2.3168644855        1.4507895511
 H          6.3091898716        0.3404496218        1.8518967501
 H          1.2716887691       -5.1930989585        1.7642517046
 H          1.8213293279       -2.7991618219        2.0587950001
 N         -0.9358117338       -0.1421131935       -0.7212742120
 N          1.7618033478       -0.0921620161       -0.7519548316
