  77
       -121.79925395
 Br         1.3861354250       -1.5649910014       -2.0859016490
 C         -2.5978345693        0.4995089596        1.1869272381
 C         -4.3354829941        1.8989053436        0.2173201967
 C          2.9987024671        2.2619737067        1.5765567281
 C          0.6458508547        1.8407445058        1.1941839851
 C         -3.3714783654        2.7427670534       -0.2620069206
 C          0.3292683967        2.9419734991        1.9785770944
 C         -1.5996664028        1.3265069226        0.5818870503
 C          2.6638201225        3.3836071215        2.3208341797
 C         -2.2374186904       -0.5657694976        2.0313611694
 C         -3.9720293125        0.7669602542        0.9721507457
 C          2.0000620568        1.4952470638        0.9888247526
 C         -2.0031836870        2.4773320016       -0.1004010557
 C          1.3394175942        3.7230839582        2.5193265788
 C         -5.6450032859       -3.2198868545       -0.9238569811
 C         -2.9231789455       -2.5638392440       -0.5754391481
 C         -3.7648721661       -1.8545280989       -1.4175300284
 C         -3.1894206262       -1.3634651509        2.6059780094
 C         -4.9286514770       -0.0972484129        1.5426233509
 C         -1.6330770177       -2.1091391025       -0.3441078196
 C         -3.2789140341       -0.7256286171       -2.0709764820
 C         -1.1739323020       -0.9427464993       -0.9298335511
 C         -1.9938196109       -0.2812863499       -1.8345628389
 C          0.0333947587        3.0206758808       -1.4626677008
 C         -1.0275237413        3.4302849783       -0.6598238517
 C         -4.5465826924       -1.1424068532        2.3375383393
 C          3.4252708956       -0.2279199846        0.0791573727
 C          4.4518387671        0.4837235859       -0.5457173969
 C          0.9294778729       -2.5451104879        2.8490102535
 C          1.9411073796       -1.8275618320        2.2377902647
 C          0.5480224996       -3.7789230059        2.3470236285
 C          2.5918515910       -2.3382518406        1.1157340259
 C          3.6559436691       -1.5680210610        0.4476835369
 C          0.9511758779        3.9342745226       -1.9431346168
 C          5.6764723452       -0.1058922075       -0.7822703558
 C         -1.1541737286        4.7876940874       -0.3736652734
 C          1.1932851427       -4.2963887183        1.2359295751
 C          2.2108388459       -3.5848094905        0.6266721021
 C          4.8837744344       -2.1512877591        0.1748951271
 C          5.8979705432       -1.4259925630       -0.4241309318
 C          0.8247601476        5.2778927932       -1.6347774311
 C         -0.2357296387        5.7020126202       -0.8529891759
 Cu         0.5524793425       -0.3104301211       -0.3925283952
 H         -1.1870539362       -0.7312509239        2.2226856516
 H         -6.6969586709       -3.2498828826       -1.2081499330
 H         -5.3829438794        2.0997921761        0.0383691085
 H          4.0358941452        1.9769664612        1.4672393714
 H         -0.7073064547        3.1786592958        2.1775496233
 H         -3.6556929790        3.6202360849       -0.8291434689
 H          3.4512356636        3.9833705596        2.7588441142
 H         -5.1858195322       -4.1900264602       -1.1470451685
 H          0.1442794309        1.9764386749       -1.7166972908
 H         -3.2497442258       -3.4647747794       -0.0792626872
 H         -0.9920657377       -2.6805417157        0.3135996821
 H         -3.9286492545       -0.1991845389       -2.7528454871
 H          1.0808459657        4.5905887764        3.1121974985
 H         -2.8996722314       -2.1724611990        3.2624397012
 H          4.2629272857        1.5003589896       -0.8612850731
 H         -5.5631873573       -3.0197267818        0.1500208747
 H         -5.9763470382        0.0889712121        1.3443885739
 H         -1.6484362360        0.6029580549       -2.3519415215
 H          0.4327728348       -2.1379459787        3.7196931248
 H          2.2339903710       -0.8657648419        2.6350203600
 H         -5.2907682572       -1.7945365272        2.7779014761
 H         -0.2541164400       -4.3319109685        2.8175809121
 H          1.7717694391        3.5930632481       -2.5584192624
 H         -1.9697971858        5.1213317983        0.2536877934
 H          6.4599059883        0.4622477002       -1.2664381515
 H          0.8937545221       -5.2545734094        0.8334437035
 H          2.6898505232       -3.9710526067       -0.2609603620
 H          5.0501256310       -3.1813465477        0.4615432676
 H          6.8550248275       -1.8900741179       -0.6186305931
 H          1.5502641836        5.9910723543       -2.0009170225
 H         -0.3425980067        6.7505142206       -0.6083548052
 N         -0.2767691524        0.9496393922        0.6934973035
 N          2.1701218413        0.3247938446        0.2905422362
 O         -5.0720250053       -2.1869764059       -1.6804819021
