17
Coordinates from ORCA-job 105772_0-TSOPT E -326.438196096500
  C      -0.417644     -0.005058     -0.832162
  C       0.216821     -0.798473      2.002387
  C       0.276180     -0.573678     -1.814027
  C       0.290704      0.950734      0.090560
  C      -1.893469     -0.206703     -0.627339
  N       0.339927      0.487418      1.538953
  O      -0.150885     -1.826798      1.364632
  H       4.498676      0.401281      0.208733
  H       0.491155     -0.800344      3.102063
  H       1.333332     -0.365882     -1.932882
  H      -0.177740     -1.267306     -2.511882
  H      -0.217445      1.977494      0.068645
  H       1.353538      1.101609     -0.289089
  H      -2.086977     -0.652991      0.347869
  H      -2.307773     -0.866419     -1.390398
  H      -2.431841      0.741679     -0.670357
  H       0.693298      1.178061      2.220456
17
Coordinates from ORCA-job 105772_0-TSOPT E -326.445814556487
  C      -0.403792     -0.007661     -0.832913
  C       0.218582     -0.782764      2.008990
  C       0.278359     -0.572156     -1.821678
  C       0.295044      0.947286      0.110358
  C      -1.877698     -0.212011     -0.632751
  N       0.333888      0.493361      1.534955
  O      -0.127034     -1.793728      1.386222
  H       4.443306      0.362884      0.157700
  H       0.474841     -0.789858      3.102269
  H       1.327849     -0.363449     -1.938955
  H      -0.181776     -1.257291     -2.523682
  H      -0.220322      1.946016      0.085683
  H       1.353004      1.115721     -0.235826
  H      -2.072771     -0.670293      0.337090
  H      -2.289847     -0.862623     -1.404324
  H      -2.413565      0.739263     -0.666099
  H       0.671793      1.181930      2.209119
17
Coordinates from ORCA-job 105772_0-TSOPT E -326.448097467374
  C      -0.390136     -0.010602     -0.828290
  C       0.198489     -0.774915      2.019987
  C       0.289169     -0.573733     -1.816514
  C       0.299987      0.943391      0.128651
  C      -1.864248     -0.213209     -0.637507
  N       0.318015      0.493819      1.539766
  O      -0.129323     -1.778202      1.401543
  H       4.450984      0.359232      0.034824
  H       0.429346     -0.786882      3.112018
  H       1.335369     -0.368994     -1.922229
  H      -0.171881     -1.250883     -2.525564
  H      -0.219996      1.925498      0.098801
  H       1.357990      1.123810     -0.187091
  H      -2.064890     -0.679916      0.327540
  H      -2.273228     -0.856097     -1.416873
  H      -2.395991      0.741303     -0.665702
  H       0.640204      1.181003      2.212799
17
Coordinates from ORCA-job 105772_0-TSOPT E -326.449604049720
  C      -0.380340     -0.015914     -0.818009
  C       0.161104     -0.775109      2.049055
  C       0.310090     -0.575319     -1.800244
  C       0.305687      0.921061      0.151309
  C      -1.858206     -0.204274     -0.648425
  N       0.294912      0.484987      1.557793
  O      -0.147819     -1.778348      1.434825
  H       4.518001      0.422835     -0.164296
  H       0.356837     -0.782890      3.143868
  H       1.367466     -0.396630     -1.886980
  H      -0.152594     -1.232647     -2.526647
  H      -0.203034      1.900890      0.114582
  H       1.356651      1.086471     -0.157245
  H      -2.074894     -0.684057      0.307088
  H      -2.264704     -0.830266     -1.442448
  H      -2.377705      0.757665     -0.667454
  H       0.598407      1.176169      2.229388
17
Coordinates from ORCA-job 105772_0-TSOPT E -326.450559079651
  C      -0.367390     -0.023006     -0.810343
  C       0.123401     -0.770724      2.077256
  C       0.322225     -0.568892     -1.800680
  C       0.321864      0.895573      0.169170
  C      -1.846443     -0.203398     -0.646405
  N       0.260163      0.482657      1.575038
  O      -0.135362     -1.782240      1.461910
  H       4.583790      0.470518     -0.336808
  H       0.258396     -0.766739      3.178560
  H       1.386327     -0.407912     -1.885404
  H      -0.149360     -1.202536     -2.542241
  H      -0.159479      1.883289      0.112973
  H       1.374569      1.028769     -0.123496
  H      -2.068545     -0.704053      0.297250
  H      -2.256709     -0.806849     -1.455627
  H      -2.357800      0.763452     -0.642539
  H       0.520210      1.186714      2.247546
17
Coordinates from ORCA-job 105772_0-TSOPT E -326.451210464295
  C      -0.370805     -0.019507     -0.818238
  C       0.149001     -0.753002      2.073355
  C       0.305748     -0.538417     -1.831836
  C       0.325529      0.895323      0.157972
  C      -1.843184     -0.223884     -0.626290
  N       0.241597      0.501205      1.565335
  O      -0.040264     -1.776309      1.455167
  H       4.584737      0.364228     -0.239635
  H       0.245456     -0.739418      3.177680
  H       1.367596     -0.364652     -1.937624
  H      -0.175081     -1.162391     -2.575611
  H      -0.141814      1.887135      0.089297
  H       1.378645      1.010402     -0.131509
  H      -2.038835     -0.746159      0.311540
  H      -2.262397     -0.816903     -1.438551
  H      -2.368122      0.735163     -0.591072
  H       0.452051      1.221811      2.236181
17
Coordinates from ORCA-job 105772_0-TSOPT E -326.451940644109
  C      -0.363443     -0.025380     -0.816323
  C       0.131596     -0.749208      2.090729
  C       0.304780     -0.538739     -1.837944
  C       0.343594      0.872273      0.167605
  C      -1.836515     -0.218435     -0.620258
  N       0.201727      0.502470      1.574510
  O       0.024082     -1.781788      1.470416
  H       4.641339      0.405348     -0.344756
  H       0.159997     -0.725700      3.198008
  H       1.369910     -0.381045     -1.942880
  H      -0.186567     -1.143557     -2.590593
  H      -0.085967      1.877820      0.075938
  H       1.405336      0.945615     -0.097958
  H      -2.031510     -0.765918      0.303577
  H      -2.268405     -0.782388     -1.446397
  H      -2.350481      0.744783     -0.551542
  H       0.350386      1.238472      2.244027
17
Coordinates from ORCA-job 105772_0-TSOPT E -326.452524441207
  C      -0.358326     -0.031490     -0.812855
  C       0.116536     -0.748048      2.105154
  C       0.305981     -0.544201     -1.836526
  C       0.358941      0.850926      0.178342
  C      -1.833285     -0.208994     -0.617771
  N       0.167737      0.501346      1.582688
  O       0.083971     -1.784885      1.484692
  H       4.691978      0.453807     -0.454555
  H       0.083128     -0.720179      3.211683
  H       1.374012     -0.402684     -1.929915
  H      -0.189953     -1.131066     -2.600299
  H      -0.035807      1.867911      0.068757
  H       1.427440      0.887248     -0.066932
  H      -2.032840     -0.774171      0.294777
  H      -2.275165     -0.748780     -1.454641
  H      -2.334611      0.758888     -0.525051
  H       0.260122      1.248996      2.248613
17
Coordinates from ORCA-job 105772_0-TSOPT E -326.453322443738
  C      -0.358127     -0.028432     -0.817774
  C       0.137345     -0.734139      2.109209
  C       0.292602     -0.527297     -1.857036
  C       0.368036      0.841238      0.178234
  C      -1.829313     -0.213984     -0.604168
  N       0.131880      0.512014      1.578548
  O       0.217022     -1.769596      1.491579
  H       4.711204      0.398552     -0.439617
  H       0.036244     -0.708057      3.211158
  H       1.360763     -0.389453     -1.965647
  H      -0.216066     -1.101541     -2.622026
  H       0.007101      1.867829      0.052095
  H       1.440174      0.841393     -0.046524
  H      -2.013080     -0.800112      0.298749
  H      -2.283294     -0.735735     -1.445903
  H      -2.332221      0.749638     -0.480276
  H       0.139589      1.272306      2.235558
17
Coordinates from ORCA-job 105772_0-TSOPT E -326.453898072056
  C      -0.365031     -0.019020     -0.825903
  C       0.182406     -0.714349      2.103807
  C       0.276290     -0.499596     -1.879864
  C       0.363152      0.848103      0.171138
  C      -1.829694     -0.228548     -0.591560
  N       0.109149      0.527113      1.568873
  O       0.358719     -1.738208      1.487035
  H       4.701693      0.267926     -0.347684
  H       0.040665     -0.699126      3.201157
  H       1.342542     -0.352615     -2.004695
  H      -0.238733     -1.070579     -2.643051
  H       0.016266      1.877917      0.037199
  H       1.435604      0.833378     -0.045373
  H      -1.990546     -0.829778      0.305866
  H      -2.290014     -0.744569     -1.433325
  H      -2.344777      0.725433     -0.444756
  H       0.042171      1.291142      2.217297
17
Coordinates from ORCA-job 105772_0-TSOPT E -326.454553652781
  C      -0.371327     -0.014898     -0.830015
  C       0.221735     -0.702429      2.109270
  C       0.263592     -0.494469     -1.888158
  C       0.364549      0.838764      0.174162
  C      -1.835832     -0.219822     -0.590488
  N       0.075153      0.528035      1.565646
  O       0.520636     -1.702406      1.500825
  H       4.720434      0.221621     -0.339518
  H       0.020424     -0.705154      3.197021
  H       1.331016     -0.355810     -2.015447
  H      -0.257964     -1.056550     -2.653571
  H       0.050587      1.877184      0.030801
  H       1.439283      0.790170     -0.021455
  H      -1.996011     -0.827374      0.303232
  H      -2.303187     -0.726167     -1.434193
  H      -2.346585      0.734555     -0.431239
  H      -0.086642      1.289374      2.199288
17
Coordinates from ORCA-job 105772_0-TSOPT E -326.454952718015
  C      -0.383999     -0.002721     -0.839131
  C       0.291064     -0.680516      2.101664
  C       0.247365     -0.472829     -1.903757
  C       0.349940      0.851781      0.166147
  C      -1.843794     -0.226585     -0.587471
  N       0.059535      0.535059      1.555048
  O       0.691110     -1.647154      1.497146
  H       4.693690      0.068209     -0.225374
  H       0.062019     -0.706345      3.183364
  H       1.312969     -0.324802     -2.040410
  H      -0.275201     -1.038117     -2.666189
  H       0.037473      1.890465      0.024080
  H       1.424428      0.801334     -0.025925
  H      -1.988705     -0.839895      0.305060
  H      -2.313345     -0.733960     -1.429281
  H      -2.364922      0.720417     -0.417562
  H      -0.189770      1.280282      2.178751
17
Coordinates from ORCA-job 105772_0-TSOPT E -326.455132134343
  C      -0.388635      0.009881     -0.849308
  C       0.325024     -0.649267      2.097888
  C       0.232660     -0.428876     -1.933892
  C       0.341149      0.869327      0.154257
  C      -1.835818     -0.260344     -0.571549
  N       0.055082      0.554580      1.543926
  O       0.771144     -1.600463      1.500908
  H       4.663972     -0.108498     -0.108584
  H       0.082654     -0.682131      3.176309
  H       1.292639     -0.256610     -2.095951
  H      -0.294196     -0.996302     -2.691794
  H       0.027344      1.906953      0.008922
  H       1.413998      0.820418     -0.038383
  H      -1.941364     -0.904397      0.304653
  H      -2.311199     -0.755154     -1.417561
  H      -2.378910      0.665794     -0.360363
  H      -0.245685      1.289714      2.156683
17
Coordinates from ORCA-job 105772_0-TSOPT E -326.455323847683
  C      -0.401689      0.024517     -0.858485
  C       0.398493     -0.621344      2.084379
  C       0.218942     -0.399880     -1.949442
  C       0.319236      0.892938      0.142815
  C      -1.840613     -0.276631     -0.568830
  N       0.052408      0.563727      1.532529
  O       0.917730     -1.535039      1.487734
  H       4.604344     -0.304209      0.037333
  H       0.147836     -0.677025      3.159874
  H       1.273917     -0.205082     -2.125622
  H      -0.304068     -0.978359     -2.701721
  H      -0.011976      1.926200      0.006286
  H       1.390286      0.859592     -0.057196
  H      -1.925776     -0.924644      0.306718
  H      -2.313409     -0.778730     -1.411987
  H      -2.401319      0.637175     -0.349707
  H      -0.314483      1.271420      2.141482
17
Coordinates from ORCA-job 105772_0-TSOPT E -326.455570124718
  C      -0.411484      0.024440     -0.855513
  C       0.431621     -0.612002      2.102067
  C       0.227130     -0.411351     -1.930878
  C       0.305282      0.887759      0.155824
  C      -1.859348     -0.258059     -0.591442
  N       0.029940      0.551615      1.541926
  O       1.019306     -1.491358      1.517686
  H       4.641309     -0.338636     -0.051785
  H       0.160330     -0.683914      3.171498
  H       1.284333     -0.215867     -2.075958
  H      -0.279237     -0.990855     -2.693821
  H      -0.019592      1.923260      0.021464
  H       1.380129      0.846689     -0.032626
  H      -1.970985     -0.893674      0.290253
  H      -2.321295     -0.764485     -1.438026
  H      -2.413523      0.664852     -0.394623
  H      -0.394058      1.236210      2.140115
17
Coordinates from ORCA-job 105772_0-TSOPT E -326.455562726534
  C      -0.410178      0.035145     -0.860694
  C       0.431157     -0.581307      2.100938
  C       0.222039     -0.361282     -1.953833
  C       0.299759      0.908500      0.147589
  C      -1.841336     -0.303188     -0.572766
  N       0.025615      0.577811      1.534898
  O       1.027362     -1.458767      1.522290
  H       4.621428     -0.516005     -0.006084
  H       0.154941     -0.651542      3.169160
  H       1.267678     -0.123759     -2.112986
  H      -0.277508     -0.944950     -2.718063
  H      -0.029244      1.941830      0.007470
  H       1.376193      0.871670     -0.037998
  H      -1.909605     -0.966858      0.292500
  H      -2.304806     -0.802166     -1.422956
  H      -2.422818      0.593501     -0.337296
  H      -0.420816      1.255991      2.123990
