  16
        -26.69475928
 Br        -2.4015262827       -0.0829416625        0.0000826684
 C          4.4597205404       -0.6822160152        0.0001740929
 C          1.6439594075       -1.0139711005       -0.0000777550
 C          2.2627292690        0.2328216684        0.0000068089
 C          0.2621603933       -1.1036523071       -0.0002188756
 C          1.4733623981        1.3864334295        0.0000153050
 C         -0.5000953035        0.0481975164       -0.0003649206
 C          0.0986454789        1.2985393737       -0.0001631011
 H          4.3165128392       -1.2972355363        0.8941937136
 H          4.3165360656       -1.2975016683       -0.8936027467
 H          2.2215622070       -1.9243729521       -0.0001491105
 H         -0.2148554368       -2.0717356718       -0.0003627472
 H          1.9660786304        2.3453543938        0.0000660138
 H          5.4705714776       -0.2782008978        0.0002633539
 H         -0.5064030639        2.1918753326       -0.0001245562
 O          3.6045263472        0.4363882704        0.0000410366
