  16
        -18.07236443
 C          0.6919351265       -1.2053754673       -0.3276207649
 C         -0.6909863189       -1.2059139617        0.3275096085
 H          1.2335168911       -2.1166714673       -0.0575280988
 H          0.5782967042       -1.1920104476       -1.4168842707
 H         -0.5772603924       -1.1927481064        1.4167675312
 H         -1.2319273486       -2.1175487907        0.0572798743
 C         -1.4899608401        0.0211686428       -0.1197889135
 C         -0.6610280315        1.2745199471       -0.0539703392
 C          0.6600892948        1.2750190987        0.0538982855
 C          1.4898872812        0.0222423274        0.1199401116
 H         -2.3784816420        0.1364402814        0.5099273764
 H         -1.8431132058       -0.1194667181       -1.1491801561
 H         -1.2128870564        2.2082472299       -0.1071637268
 H          1.2112462744        2.2091887182        0.1069508605
 H          2.3786522346        0.1380782108       -0.5093383773
 H          1.8427141192       -0.1183321171        1.1495504690
  16
        -18.06730352
 C          0.7677797159       -1.2291260400       -0.2079381999
 C         -0.7731674068       -1.2319847505       -0.1766554411
 H          1.1533285563       -2.0753619212        0.3679006882
 H          1.1042972071       -1.3561571193       -1.2413938762
 H         -1.1318646343       -2.0741279756        0.4221233924
 H         -1.1504592546       -1.3702521616       -1.1944448691
 C         -1.3770788540        0.0670336191        0.3885438194
 C         -0.6664898996        1.2628169503       -0.1785211318
 C          0.6599854819        1.2635779527       -0.1989856230
 C          1.3886127472        0.0674180165        0.3438924810
 H         -1.2696021230        0.0637899079        1.4801759711
 H         -2.4456707185        0.1003132773        0.1613463773
 H         -1.2604605844        2.0839203182       -0.5629571435
 H          1.2409272018        2.0851405855       -0.6018790276
 H          2.4497793391        0.1020138819        0.0844122399
 H          1.3139938132        0.0604988920        1.4382190254
