  16
  -17.931438900000000       0.49954392794526242      !mtd3
 C          0.6844553190       -1.1984690286       -0.3354571896
 C         -0.6846785822       -1.1983110446        0.3355327448
 H          1.2276832347       -2.1144259180       -0.0943141584
 H          0.5520866850       -1.1597815819       -1.4188685160
 H         -0.5523116016       -1.1594652931        1.4189636595
 H         -1.2280478631       -2.1142462455        0.0945104755
 C         -1.4835916049        0.0194162363       -0.1214700605
 C         -0.6587291082        1.2681054366       -0.0549148533
 C          0.6589456922        1.2680077915        0.0549674353
 C          1.4836011424        0.0191718153        0.1213500484
 H         -2.3778748219        0.1385212802        0.4960079976
 H         -1.8239492907       -0.1247281841       -1.1529465622
 H         -1.2043384141        2.2004451558       -0.1123584550
 H          1.2047369002        2.2002140887        0.1124901349
 H          2.3777563828        0.1381628997       -0.4963280082
 H          1.8242247273       -0.1249577477        1.1527466058
  16
  -17.931438880000002       0.49953335576198749      !mtd11
 C          0.6874833387       -1.1984070603        0.3294308793
 C         -0.6876931835       -1.1985511940       -0.3290776938
 H          0.5649589077       -1.1594722122        1.4139836948
 H          1.2285715597       -2.1144139402        0.0836887273
 H         -1.2288583869       -2.1143872965       -0.0827829387
 H         -0.5651054754       -1.1602528894       -1.4136382028
 C         -1.4823975550        0.0194748525        0.1344304636
 C         -0.6581542328        1.2681667870        0.0609088935
 C          0.6584865543        1.2680605764       -0.0606470855
 C          1.4823131993        0.0191808840       -0.1350423692
 H         -1.8138224597       -0.1244884265        1.1687831491
 H         -2.3819925607        0.1386463612       -0.4752251765
 H         -1.2032365917        2.2004834979        0.1235185764
 H          1.2037729059        2.2003005388       -0.1225849577
 H          1.8128922557       -0.1248403022       -1.1697108815
 H          2.3823655625        0.1381197570        0.4739312114
  16
  -17.924836519999999        4.6166815765276946E-004 !mtd2
 C          0.7654210533       -1.2216690554       -0.2231288114
 C         -0.7726430819       -1.2283293500       -0.1781779937
 H          1.1650049137       -2.0777016800        0.3230567406
 H          1.0974225582       -1.3123371858       -1.2588197086
 H         -1.1313961283       -2.0720448075        0.4136284628
 H         -1.1625754879       -1.3516584128       -1.1899235048
 C         -1.3566591976        0.0692002542        0.4044824296
 C         -0.6642744473        1.2552770854       -0.1870668591
 C          0.6592876302        1.2559772564       -0.2065458952
 C          1.3688634053        0.0668282664        0.3581150247
 H         -1.1988956913        0.0691838219        1.4879784406
 H         -2.4313847464        0.1032854225        0.2239618687
 H         -1.2551790313        2.0658253832       -0.5845557265
 H          1.2374170549        2.0668248234       -0.6221010504
 H          2.4379234755        0.1020043330        0.1464147175
 H          1.2417183523        0.0556076720        1.4455376596
  16
  -17.924835250000001        4.6104813509739527E-004 !md3
 C          0.7733683350       -1.2189200747        0.2007439012
 C         -0.7652483561       -1.2304590782        0.2031605098
 H          1.1376113283       -1.2974014086        1.2265365449
 H          1.1587448471       -2.0793688690       -0.3486549516
 H         -1.1231777419       -1.3640101116        1.2252201840
 H         -1.1395194994       -2.0702159604       -0.3845154326
 C         -1.3717104524        0.0694042690       -0.3513971287
 C         -0.6559342085        1.2550982021        0.2123802298
 C          0.6673315331        1.2563714759        0.1783006631
 C          1.3538175695        0.0657138261       -0.4110323400
 H         -2.4381870169        0.1034542961       -0.1269678014
 H         -1.2587458759        0.0718107231       -1.4405375044
 H         -1.2304802945        2.0665822074        0.6315353967
 H          1.2612823460        2.0678927470        0.5692316751
 H          1.1825818378        0.0497216088       -1.4923113191
 H          2.4305320809        0.1014278739       -0.2427332759
