  16
        -17.93143890
 C          0.6847878834       -1.1982915336        0.3354859148
 C         -0.6843449901       -1.1985001561       -0.3355147115
 H          0.5523778262       -1.1595413965        1.4189164779
 H          1.2282425992       -2.1141858317        0.0944476046
 H         -1.2275145239       -2.1145751466       -0.0945513758
 H         -0.5518887991       -1.1596034400       -1.4189258232
 C         -1.4835986349        0.0190187060        0.1214467720
 C         -0.6590839308        1.2679596961        0.0549003456
 C          0.6586097448        1.2681960262       -0.0548402063
 C          1.4835939125        0.0195545145       -0.1214344617
 H         -1.8236587768       -0.1252074775        1.1530299168
 H         -2.3780445918        0.1377877709       -0.4959062643
 H         -1.2050189368        2.2000954701        0.1118983556
 H          1.2041326887        2.2005861181       -0.1124654627
 H          1.8239071715       -0.1245501742       -1.1529675835
 H          2.3778945288        0.1387413364        0.4960039499
