  16
        -17.93143890
 C          0.6852104290       -1.1980200447        0.3355910795
 C         -0.6838194098       -1.1986894336       -0.3355950715
 H          0.5527387282       -1.1591291370        1.4189731350
 H          1.2290809701       -2.1136974366        0.0947258845
 H         -1.2266308176       -2.1150627075       -0.0951113980
 H         -0.5512673011       -1.1592462686       -1.4188961559
 C         -1.4836105169        0.0184153130        0.1214608912
 C         -0.6595764605        1.2676743380        0.0549325562
 C          0.6581184954        1.2684407217       -0.0549030869
 C          1.4835561842        0.0200832026       -0.1214564933
 H         -1.8235543173       -0.1260952609        1.1529625188
 H         -2.3780466489        0.1369564570       -0.4958399858
 H         -1.2058225870        2.1996225066        0.1122803734
 H          1.2032753860        2.2010072619       -0.1122808781
 H          1.8237535817       -0.1239851359       -1.1530108776
 H          2.3779182634        0.1395720671        0.4958413644
  16
        -17.92483713
 C          0.7662380593       -1.2237311091        0.2175625404
 C         -0.7721992015       -1.2261442069        0.1847156510
 H          1.1057127289       -1.3261044307        1.2496777982
 H          1.1595778075       -2.0750952848       -0.3403289149
 H         -1.1546690027       -1.3366000266        1.2007367382
 H         -1.1385388995       -2.0749574119       -0.3949711381
 C         -1.3558195245        0.0674272646       -0.4066334635
 C         -0.6658957104        1.2551591310        0.1847485974
 C          0.6576427962        1.2561117515        0.2082378991
 C          1.3694762696        0.0684433699       -0.3563381032
 H         -2.4313852217        0.1014445715       -0.2300545395
 H         -1.1936055502        0.0628341627       -1.4895247796
 H         -1.2581455629        2.0657266941        0.5804371312
 H          1.2341491287        2.0672729254        0.6251726659
 H          1.2455827736        0.0609592585       -1.4441985367
 H          2.4379631974        0.1037264665       -0.1417789265
  16
        -17.92466713
 C          0.7487751316       -1.2745169852        0.0704379297
 C         -0.7627107791       -1.1711149798        0.3069376243
 H          1.2173552271       -1.6820573339        0.9676343161
 H          0.9469442382       -1.9752264576       -0.7428112669
 H         -0.9587726903       -1.0592798906        1.3754493745
 H         -1.2543460442       -2.0867461233       -0.0258878086
 C         -1.3653983974        0.0429468078       -0.4072136963
 C         -0.6808999107        1.2658290237        0.1170093874
 C          0.6382019776        1.2557729943        0.2206667026
 C          1.4110737289        0.0753220600       -0.2783819976
 H         -2.4413685624        0.0872260661       -0.2353795655
 H         -1.1960654155       -0.0509276491       -1.4842376261
 H         -1.2793716375        2.1035626224        0.4407070874
 H          1.1906933967        2.0937472515        0.6184186157
 H          1.4730869368        0.1597628222       -1.3687092049
 H          2.4324324370        0.0952212814        0.1037937379
