 77
-121.743728 -121.665420 -121.795328
Br 0.208326 2.901150 -0.761273
C -2.643627 -0.461375 -1.156273
C -4.380807 -1.512803 0.187732
C 2.796246 -2.524293 -1.642878
C 0.527048 -1.839367 -1.132664
C -3.411399 -2.191286 0.881107
C 0.087214 -3.084232 -1.576625
C -1.634406 -1.130975 -0.387912
C 2.335683 -3.768548 -2.042347
C -2.289905 0.336573 -2.256675
C -4.018863 -0.654865 -0.865980
C 1.919516 -1.533544 -1.207272
C -2.048897 -2.030042 0.609286
C 0.980318 -4.040553 -2.029766
C -6.428151 2.289623 0.905298
C -3.898034 2.796070 -0.239230
C -4.065281 2.045339 0.920025
C -3.244388 0.933933 -3.038308
C -4.977086 -0.004162 -1.670162
C -2.628269 3.024432 -0.740591
C -2.943106 1.528714 1.568462
C -1.530160 2.511470 -0.079184
C -1.678100 1.766541 1.076473
C -1.237025 -4.203147 1.500312
C -1.066243 -2.827571 1.359933
C -4.600677 0.771870 -2.732571
C 3.569699 0.173321 -0.809087
C 4.330603 0.186269 -1.992455
C 3.438171 -0.303172 3.891754
C 4.083941 -0.097758 2.682539
C 2.152402 0.189084 4.079272
C 3.484051 0.605689 1.648503
C 4.176849 0.708246 0.362946
C -0.294932 -4.966098 2.164142
C 5.600932 0.711637 -2.033390
C 0.061914 -2.239180 1.926752
C 1.548006 0.922983 3.082314
C 2.166588 1.124163 1.827325
C 5.472747 1.198188 0.301797
C 6.187699 1.220311 -0.881822
C 0.832830 -4.369701 2.702493
C 1.005866 -3.000128 2.585980
Cu 0.855492 0.373224 0.257514
H -1.238764 0.448496 -2.482538
H -7.249450 2.002576 1.560937
H -5.427341 -1.647705 0.427039
H 3.859908 -2.322626 -1.639571
H -0.973675 -3.301353 -1.562901
H -3.697241 -2.861827 1.682829
H 3.042843 -4.523717 -2.363915
H -6.389811 3.382043 0.832045
H -2.103953 -4.678156 1.060833
H -4.744058 3.193033 -0.776326
H -2.499504 3.590620 -1.649323
H -3.086914 0.930438 2.453453
H 0.611864 -5.004671 -2.358756
H -2.957193 1.529795 -3.894162
H 3.873153 -0.204590 -2.891072
H -6.591507 1.864827 -0.089983
H -6.026622 -0.147360 -1.439452
H -0.812217 1.354573 1.572673
H 3.933474 -0.844276 4.686690
H 5.075609 -0.502791 2.530110
H -5.349528 1.253302 -3.350131
H 1.642540 0.028265 5.019738
H -0.434531 -6.035937 2.252202
H 0.193547 -1.167221 1.835440
H 6.145071 0.730021 -2.969944
H 0.570675 1.352352 3.267624
H 1.965841 2.081845 1.343151
H 5.921136 1.591617 1.206445
H 7.189426 1.627930 -0.909150
H 1.576295 -4.971140 3.207776
H 1.879885 -2.521065 3.003198
N -0.321100 -0.865737 -0.670695
N 2.299410 -0.294572 -0.773764
O -5.265506 1.768915 1.498530

