16
        -17.93143469 , 
  C -0.99565911  1.11365923  0.18132450
  C -1.27606981  2.60235503  0.00621402
  H -1.87015336  0.60701239  0.59652452
  H -0.78124129  0.67212641 -0.79519026
  H -1.41874000  3.05865194  0.98976411
  H -2.19153547  2.75281318 -0.57214870
  C -0.09768571  3.27066793 -0.69802487
  C  1.20712103  2.85883263 -0.08807867
  C  1.34217747  1.81494158  0.71224009
  C  0.20657606  0.91889618  1.10162547
  H -0.19651844  4.35903197 -0.65048292
  H -0.09394222  2.99564591 -1.75944204
  H  2.06428798  3.46565933 -0.34755614
  H  2.30699363  1.56935898  1.13582647
  H  0.53724804 -0.12289726  1.07602732
  H -0.07794548  1.13896956  2.13677414