 77
-121.734142 -121.642845 -121.792864
Br 0.238662 2.954495 -0.494352
C -2.583601 -0.461352 -1.381010
C -4.447925 -1.464288 -0.183311
C 2.918217 -2.329803 -1.499670
C 0.588073 -1.823507 -1.042133
C -3.553695 -2.123147 0.620969
C 0.284487 -3.158579 -1.272718
C -1.652039 -1.125263 -0.510113
C 2.595164 -3.666479 -1.664738
C -2.118365 0.328105 -2.445841
C -3.980946 -0.631934 -1.218799
C 1.936642 -1.383959 -1.212377
C -2.167129 -1.986258 0.476420
C 1.278939 -4.075481 -1.578969
C -5.842401 0.974834 2.007682
C -3.884704 2.744106 -0.482907
C -4.174018 1.927228 0.612163
C -2.989532 0.936153 -3.313010
C -4.854009 0.027095 -2.107244
C -2.579063 3.004916 -0.838390
C -3.131892 1.369273 1.343996
C -1.555685 2.454928 -0.083020
C -1.819731 1.646620 1.001601
C -1.581690 -4.137472 1.562422
C -1.285553 -2.793856 1.330881
C -4.369690 0.793252 -3.133287
C 3.434923 0.469041 -1.203290
C 3.976837 0.805136 -2.447859
C 3.813906 -0.819955 3.363238
C 4.333448 -0.504083 2.114872
C 2.604741 -0.269150 3.767541
C 3.679460 0.374605 1.269927
C 4.229628 0.700121 -0.050564
C -0.747030 -4.928138 2.326889
C 5.243060 1.342939 -2.561469
C -0.130647 -2.268897 1.906546
C 1.943490 0.620373 2.947067
C 2.445153 0.954228 1.672617
C 5.511229 1.207004 -0.188800
C 6.024694 1.533552 -1.433440
C 0.405149 -4.394385 2.878610
C 0.707064 -3.060149 2.666261
Cu 0.821606 0.495748 0.121286
H -1.048906 0.428964 -2.568875
H -5.400009 1.376014 2.925741
H -5.514792 -1.596830 -0.051741
H 3.947297 -2.002634 -1.590073
H -0.744662 -3.487778 -1.212013
H -3.924088 -2.762733 1.414676
H 3.378738 -4.385296 -1.873387
H -6.928231 1.029477 2.078372
H -2.463453 -4.572065 1.110600
H -4.705302 3.151883 -1.050366
H -2.354382 3.622539 -1.692657
H -3.319084 0.709940 2.175463
H 1.016238 -5.114307 -1.737297
H -2.616175 1.528281 -4.137882
H 3.372175 0.634305 -3.327607
H -5.534807 -0.067302 1.879596
H -5.921248 -0.087325 -1.964346
H -1.009064 1.217896 1.574168
H 4.352686 -1.489168 4.020168
H 5.261269 -0.954878 1.789391
H -5.052116 1.286173 -3.814395
H 2.197085 -0.513618 4.739799
H -0.988794 -5.971854 2.482612
H 0.120988 -1.227311 1.751650
H 5.629293 1.607895 -3.537887
H 1.012122 1.061775 3.280943
H 2.255229 1.968532 1.322495
H 6.108183 1.370141 0.700347
H 7.024880 1.936899 -1.520346
H 1.067731 -5.017112 3.464185
H 1.606048 -2.631914 3.085212
N -0.328662 -0.858631 -0.705506
N 2.168008 -0.049557 -1.105131
O -5.493937 1.749127 0.885257

