 77
-121.753996 -121.682968 -121.793154
Br 0.683012 1.379695 2.298925
C -2.950870 -1.153447 -1.491992
C -4.703210 -2.064308 -0.056688
C 2.102221 -1.088314 -3.079992
C 0.067726 -1.456898 -1.811871
C -3.782617 -2.231932 0.941255
C -0.323181 -2.374940 -2.785797
C -1.961345 -1.476265 -0.488026
C 1.663510 -1.962801 -4.058466
C -2.620096 -0.445795 -2.658410
C -4.314759 -1.482315 -1.279420
C 1.337278 -0.822834 -1.942833
C -2.424909 -1.932880 0.770819
C 0.455052 -2.618666 -3.904092
C -4.305199 2.929915 -2.217193
C -1.888395 2.408574 -0.831708
C -3.140650 2.040155 -0.345503
C -3.560822 -0.151957 -3.613192
C -5.256207 -1.191414 -2.286470
C -0.744343 2.108297 -0.114592
C -3.227486 1.372520 0.878014
C -0.843077 1.374841 1.065046
C -2.094334 1.056884 1.591438
C -1.952088 -1.801088 3.204237
C -1.512381 -2.093148 1.906841
C -4.889462 -0.551123 -3.438009
C 2.790758 0.850226 -0.984837
C 2.845412 1.807509 -2.013764
C 4.119701 -2.458656 1.569553
C 3.930385 -1.443106 0.653078
C 4.190829 -2.173521 2.924538
C 3.827557 -0.116557 1.071270
C 3.731240 0.956811 0.069327
C -1.100410 -1.868762 4.288896
C 3.748574 2.845910 -1.971897
C -0.180546 -2.503603 1.758103
C 4.056510 -0.864704 3.353527
C 3.887094 0.155134 2.435560
C 4.615223 2.022367 0.101259
C 4.630695 2.972360 -0.907204
C 0.223359 -2.239290 4.115853
C 0.668412 -2.577946 2.850920
Cu 0.456186 -0.151811 0.475252
H -1.601762 -0.115050 -2.801156
H -3.763797 2.313135 -2.941006
H -5.737550 -2.345029 0.089713
H 3.071700 -0.616037 -3.174549
H -1.260655 -2.900777 -2.658170
H -4.101357 -2.658952 1.882515
H 2.279952 -2.147645 -4.929511
H -5.347545 3.010960 -2.524233
H -2.977983 -1.494668 3.361572
H -1.786970 2.937672 -1.765779
H 0.222236 2.422705 -0.482520
H -4.203996 1.107611 1.250425
H 0.117817 -3.330113 -4.647124
H -3.275223 0.385188 -4.508281
H 2.140316 1.727690 -2.831703
H -3.860891 3.931206 -2.176608
H -6.288491 -1.475936 -2.122952
H -2.164029 0.557821 2.543322
H 4.211884 -3.481167 1.227246
H 3.871455 -1.671490 -0.399628
H -5.622650 -0.333380 -4.204889
H 4.338062 -2.969869 3.641470
H -1.468151 -1.618837 5.275575
H 0.173515 -2.840185 0.797073
H 3.761589 3.577544 -2.771842
H 4.079051 -0.635987 4.410540
H 3.779771 1.173346 2.781621
H 5.325851 2.088572 0.915540
H 5.331922 3.794413 -0.872939
H 0.897044 -2.273651 4.960569
H 1.689458 -2.895809 2.705831
N -0.645095 -1.251005 -0.652963
N 1.800894 -0.081964 -0.889299
O -4.329779 2.323582 -0.950375

