  16
        -17.93143890
 C          0.6844553190       -1.1984690286       -0.3354571896
 C         -0.6846785822       -1.1983110446        0.3355327448
 H          1.2276832347       -2.1144259180       -0.0943141584
 H          0.5520866850       -1.1597815819       -1.4188685160
 H         -0.5523116016       -1.1594652931        1.4189636595
 H         -1.2280478631       -2.1142462455        0.0945104755
 C         -1.4835916049        0.0194162363       -0.1214700605
 C         -0.6587291082        1.2681054366       -0.0549148533
 C          0.6589456922        1.2680077915        0.0549674353
 C          1.4836011424        0.0191718153        0.1213500484
 H         -2.3778748219        0.1385212802        0.4960079976
 H         -1.8239492907       -0.1247281841       -1.1529465622
 H         -1.2043384141        2.2004451558       -0.1123584550
 H          1.2047369002        2.2002140887        0.1124901349
 H          2.3777563828        0.1381628997       -0.4963280082
 H          1.8242247273       -0.1249577477        1.1527466058
